36
8.485281 0.000000 0.000000 -4.242641 7.348469 0.000000 0.000000 0.000000 16.928203
Pt    1.41421    0.81650    2.30940
Pt   -4.24264    0.81650    2.30940
Pt   -1.41421    0.81650    2.30940
Pt   -2.82843    3.26599    2.30940
Pt    0.00000    3.26599    2.30940
Pt   -1.41421    2.44949    0.00000
Pt    1.41421    2.44949    0.00000
Pt   -5.65685    3.26599    2.30940
Pt   -4.24264    2.44949    0.00000
Pt    0.00000   -1.63299    2.30940
Pt    2.82843   -1.63299    2.30940
Pt    1.41421   -2.44949    0.00000
Pt    4.24264   -2.44949    0.00000
Pt    2.82843    0.00000    0.00000
Pt    4.24264   -0.81650   -2.30940
Pt   -2.82843   -1.63299    2.30940
Pt   -1.41421   -2.44949    0.00000
Pt   -2.82843    0.00000    0.00000
Pt    0.00000    0.00000    0.00000
Pt   -1.41421   -0.81650   -2.30940
Pt    1.41421   -0.81650   -2.30940
Pt    0.00000    1.63299   -2.30940
Pt    2.82843    1.63299   -2.30940
Pt   -2.82843    1.63299   -2.30940
Pt    2.82843   -3.26599   -2.30940
Pt    5.65685   -3.26599   -2.30940
Pt    0.00000   -3.26599   -2.30940
C     0.86197   -0.52752    3.71474
C    -0.43063    0.29108    3.71474
O    -1.55383   -0.59232    3.71474
H     0.89407   -1.15602    4.60474
H     0.89407   -1.15602    2.82474
H     1.71877    0.14628    3.71474
H    -0.46263    0.91958    4.60474
H    -0.46263    0.91958    2.82474
H    -2.40913   -0.14112    3.71474
36

Pt 1.414210 0.816500 2.309400
Pt -4.242640 0.816500 2.309400
Pt -1.414210 0.816500 2.309400
Pt -2.828430 3.265990 2.309400
Pt 0.000000 3.265990 2.309400
Pt -1.414210 2.449490 0.000000
Pt 1.414210 2.449490 0.000000
Pt -5.656850 3.265990 2.309400
Pt -4.242640 2.449490 0.000000
Pt 0.000000 -1.632990 2.309400
Pt 2.828430 -1.632990 2.309400
Pt 1.414210 -2.449490 0.000000
Pt 4.242640 -2.449490 0.000000
Pt 2.828430 0.000000 0.000000
Pt 4.242640 -0.816500 -2.309400
Pt -2.828430 -1.632990 2.309400
Pt -1.414210 -2.449490 0.000000
Pt -2.828430 0.000000 0.000000
Pt 0.000000 0.000000 0.000000
Pt -1.414210 -0.816500 -2.309400
Pt 1.414210 -0.816500 -2.309400
Pt 0.000000 1.632990 -2.309400
Pt 2.828430 1.632990 -2.309400
Pt -2.828430 1.632990 -2.309400
Pt 2.828430 -3.265990 -2.309400
Pt 5.656850 -3.265990 -2.309400
Pt 0.000000 -3.265990 -2.309400
C 0.994348 -0.763273 3.551489
C -0.309863 0.171652 3.654440
O -1.463495 -0.405542 3.888050
H 1.033948 -1.227616 4.553992
H 1.505307 -1.475323 2.579583
H 1.599750 0.006016 3.937608
H -0.382582 0.883856 4.567696
H 0.004384 0.914519 2.521443
H -2.442001 -0.196168 3.803524
