33
8.485281 0.000000 0.000000 -4.242641 7.348469 0.000000 0.000000 0.000000 16.928203
Pt 1.414210 0.816500 2.309400
Pt -4.242640 0.816500 2.309400
Pt -1.414210 0.816500 2.309400
Pt -2.828430 3.265990 2.309400
Pt -0.000000 3.265990 2.309400
Pt -1.414210 2.449490 0.000000
Pt 1.414210 2.449490 0.000000
Pt -5.656850 3.265990 2.309400
Pt -4.242640 2.449490 0.000000
Pt 0.000000 -1.632990 2.309400
Pt 2.828430 -1.632990 2.309400
Pt 1.414210 -2.449490 0.000000
Pt 4.242640 -2.449490 0.000000
Pt 2.828430 0.000000 0.000000
Pt 4.242640 -0.816500 -2.309400
Pt -2.828430 -1.632990 2.309400
Pt -1.414210 -2.449490 0.000000
Pt -2.828430 0.000000 0.000000
Pt 0.000000 0.000000 0.000000
Pt -1.414210 -0.816500 -2.309400
Pt 1.414210 -0.816500 -2.309400
Pt -0.000000 1.632990 -2.309400
Pt 2.828430 1.632990 -2.309400
Pt -2.828430 1.632990 -2.309400
Pt 2.828430 -3.265990 -2.309400
Pt 5.656850 -3.265990 -2.309400
Pt 0.000000 -3.265990 -2.309400
C -0.812482 0.796545 5.524967
O -0.811719 -0.490653 4.974538
H -0.929661 1.555895 4.721782
H -1.638968 0.902943 6.259309
H 0.147477 0.979979 6.045403
H -1.694596 -0.600562 4.535066
33
8.485281 0.000000 0.000000 -4.242641 7.348469 0.000000 0.000000 0.000000 16.928203
Pt 1.414210 0.816500 2.309400
Pt -4.242640 0.816500 2.309400
Pt -1.414210 0.816500 2.309400
Pt -2.828430 3.265990 2.309400
Pt -0.000000 3.265990 2.309400
Pt -1.414210 2.449490 0.000000
Pt 1.414210 2.449490 0.000000
Pt -5.656850 3.265990 2.309400
Pt -4.242640 2.449490 0.000000
Pt 0.000000 -1.632990 2.309400
Pt 2.828430 -1.632990 2.309400
Pt 1.414210 -2.449490 0.000000
Pt 4.242640 -2.449490 0.000000
Pt 2.828430 0.000000 0.000000
Pt 4.242640 -0.816500 -2.309400
Pt -2.828430 -1.632990 2.309400
Pt -1.414210 -2.449490 0.000000
Pt -2.828430 0.000000 0.000000
Pt 0.000000 0.000000 0.000000
Pt -1.414210 -0.816500 -2.309400
Pt 1.414210 -0.816500 -2.309400
Pt -0.000000 1.632990 -2.309400
Pt 2.828430 1.632990 -2.309400
Pt -2.828430 1.632990 -2.309400
Pt 2.828430 -3.265990 -2.309400
Pt 5.656850 -3.265990 -2.309400
Pt 0.000000 -3.265990 -2.309400
C -1.926475 1.287539 5.201987
O -2.335231 0.491980 4.125312
H -1.914806 2.357595 4.901418
H -2.610280 1.150509 6.066321
H -0.903711 0.997115 5.511577
H -3.258414 0.783717 3.901649
33
8.485281 0.000000 0.000000 -4.242641 7.348469 0.000000 0.000000 0.000000 16.928203
Pt 1.414210 0.816500 2.309400
Pt -4.242640 0.816500 2.309400
Pt -1.414210 0.816500 2.309400
Pt -2.828430 3.265990 2.309400
Pt -0.000000 3.265990 2.309400
Pt -1.414210 2.449490 0.000000
Pt 1.414210 2.449490 0.000000
Pt -5.656850 3.265990 2.309400
Pt -4.242640 2.449490 0.000000
Pt 0.000000 -1.632990 2.309400
Pt 2.828430 -1.632990 2.309400
Pt 1.414210 -2.449490 0.000000
Pt 4.242640 -2.449490 0.000000
Pt 2.828430 0.000000 0.000000
Pt 4.242640 -0.816500 -2.309400
Pt -2.828430 -1.632990 2.309400
Pt -1.414210 -2.449490 0.000000
Pt -2.828430 0.000000 0.000000
Pt 0.000000 0.000000 0.000000
Pt -1.414210 -0.816500 -2.309400
Pt 1.414210 -0.816500 -2.309400
Pt -0.000000 1.632990 -2.309400
Pt 2.828430 1.632990 -2.309400
Pt -2.828430 1.632990 -2.309400
Pt 2.828430 -3.265990 -2.309400
Pt 5.656850 -3.265990 -2.309400
Pt 0.000000 -3.265990 -2.309400
C -1.647148 1.341883 5.247067
O -1.592213 0.317430 4.301340
H -1.833259 2.307099 4.732742
H -2.469433 1.144647 5.963505
H -0.688261 1.400252 5.797709
H -4.706379 1.233759 4.072290


