27
8.485281 0.000000 0.000000 -4.242641 7.348469 0.000000 0.000000 0.000000 16.928203
Pt    1.41421    0.81650    2.30940
Pt   -4.24264    0.81650    2.30940
Pt   -1.41421    0.81650    2.30940
Pt   -2.82843    3.26599    2.30940
Pt    0.00000    3.26599    2.30940
Pt   -1.41421    2.44949    0.00000
Pt    1.41421    2.44949    0.00000
Pt   -5.65685    3.26599    2.30940
Pt   -4.24264    2.44949    0.00000
Pt    0.00000   -1.63299    2.30940
Pt    2.82843   -1.63299    2.30940
Pt    1.41421   -2.44949    0.00000
Pt    4.24264   -2.44949    0.00000
Pt    2.82843    0.00000    0.00000
Pt    4.24264   -0.81650   -2.30940
Pt   -2.82843   -1.63299    2.30940
Pt   -1.41421   -2.44949    0.00000
Pt   -2.82843    0.00000    0.00000
Pt    0.00000    0.00000    0.00000
Pt   -1.41421   -0.81650   -2.30940
Pt    1.41421   -0.81650   -2.30940
Pt    0.00000    1.63299   -2.30940
Pt    2.82843    1.63299   -2.30940
Pt   -2.82843    1.63299   -2.30940
Pt    2.82843   -3.26599   -2.30940
Pt    5.65685   -3.26599   -2.30940
Pt    0.00000   -3.26599   -2.30940
